Version 4
SHEET 1 1396 680
WIRE -48 -192 -96 -192
WIRE 80 -192 32 -192
WIRE 160 -192 80 -192
WIRE 416 -192 240 -192
WIRE -96 -160 -96 -192
WIRE -976 -96 -1008 -96
WIRE -608 -96 -976 -96
WIRE -64 -96 -288 -96
WIRE -288 -64 -288 -96
WIRE 240 -64 144 -64
WIRE -608 -48 -608 -96
WIRE -768 -32 -896 -32
WIRE -64 -32 -64 -96
WIRE -288 32 -288 16
WIRE 144 48 144 -64
WIRE -896 64 -896 -32
WIRE -768 64 -768 48
WIRE 80 64 80 -192
WIRE 112 64 80 64
WIRE -976 80 -976 -96
WIRE -928 80 -976 80
WIRE 416 80 416 -192
WIRE 416 80 176 80
WIRE -608 96 -608 32
WIRE -608 96 -864 96
WIRE -208 96 -608 96
WIRE -64 96 -64 48
WIRE -64 96 -128 96
WIRE 112 96 -64 96
WIRE -928 112 -1328 112
WIRE 144 144 144 112
WIRE -1328 160 -1328 112
WIRE -896 176 -896 128
FLAG 144 144 0
FLAG 240 16 0
FLAG -288 32 0
FLAG -96 -160 0
FLAG -768 64 0
FLAG -1328 240 0
FLAG -1088 -96 0
FLAG -896 256 0
SYMBOL Opamps\\AD8628 144 16 R0
SYMATTR InstName U1
SYMBOL voltage 240 -80 R0
WINDOW 123 0 0 Left 0
WINDOW 39 0 0 Left 0
SYMATTR InstName V1
SYMATTR Value 3.3
SYMBOL res 256 -208 R90
WINDOW 0 -13 58 VBottom 2
WINDOW 3 31 59 VTop 2
SYMATTR InstName R2
SYMATTR Value 1k
SYMBOL voltage -288 -80 R0
WINDOW 123 0 0 Left 0
WINDOW 39 0 0 Left 0
SYMATTR InstName V3
SYMATTR Value 1.65
SYMBOL res 48 -208 R90
WINDOW 0 0 56 VBottom 2
WINDOW 3 32 56 VTop 2
SYMATTR InstName R1
SYMATTR Value 1k
SYMBOL Opamps\\AD8628 -896 32 R0
SYMATTR InstName U2
SYMBOL voltage -768 -48 R0
WINDOW 123 0 0 Left 0
WINDOW 39 0 0 Left 0
SYMATTR InstName V4
SYMATTR Value 3.3
SYMBOL Misc\\signal -1328 144 R0
WINDOW 123 0 0 Left 0
WINDOW 39 0 0 Left 0
SYMATTR InstName V2
SYMATTR Value SINE(0 12m 1)
SYMBOL res -624 -64 R0
SYMATTR InstName R5
SYMATTR Value 50k
SYMBOL res -992 -112 R90
WINDOW 0 0 56 VBottom 2
WINDOW 3 32 56 VTop 2
SYMATTR InstName R6
SYMATTR Value 1k
SYMBOL voltage -896 160 R0
WINDOW 123 0 0 Left 0
WINDOW 39 0 0 Left 0
SYMATTR InstName V6
SYMATTR Value -3.3
SYMBOL res -80 -48 R0
SYMATTR InstName R4
SYMATTR Value 1k
SYMBOL res -112 80 R90
WINDOW 0 0 56 VBottom 2
WINDOW 3 32 56 VTop 2
SYMATTR InstName R3
SYMATTR Value 1k
TEXT -304 -256 Left 2 ;yo this part works also
TEXT -1360 272 Left 2 !.tran 5
TEXT -1000 -208 Left 2 ;Yo this part works
TEXT 352 120 Left 2 ;now this outputs between 0.9 to 2.3 volts
